/*--------------------------------*- C++ -*----------------------------------*\
| =========                 |                                                 |
| \\      /  F ield         | OpenFOAM: The Open Source CFD Toolbox           |
|  \\    /   O peration     | Version:  v2012                                 |
|   \\  /    A nd           | Website:  www.openfoam.com                      |
|    \\/     M anipulation  |                                                 |
\*---------------------------------------------------------------------------*/
FoamFile
{
    version     2.0;
    format      ascii;
    class       dictionary;
    location    "constant";
    object      createBoxTurbDict;
}
// * * * * * * * * * * * * * * * * * * * * * * * * * * * * * * * * * * * * * //

N           (28 28 28);

L   (6.28 6.28 6.28);

nModes      10000;

// Energy as a function of wave number
Ek          table
(
(0.000000000000000000e+00 6.85485e-09)
(1.000507214519042343e+00 4.89746e-07)
(2.001014429038084685e+00 1.94838e-06)
(3.001521643557127028e+00 2.00038e-06)
(4.002028858076169371e+00 2.94699e-06)
(5.002536072595211714e+00 2.63195e-06)
(6.003043287114254056e+00 2.45105e-06)
(7.003550501633296399e+00 1.85905e-06)
(8.004057716152338742e+00 1.89099e-06)
(9.004564930671381973e+00 1.87654e-06)
(1.000507214519042343e+01 1.55565e-06)
(1.100557935970946488e+01 1.4251e-06)
(1.200608657422850811e+01 1.33511e-06)
(1.300659378874755134e+01 1.20821e-06)
(1.400710100326659280e+01 1.12956e-06)
(1.500760821778563425e+01 9.55679e-07)
(1.600811543230467748e+01 9.66469e-07)
(1.700862264682372071e+01 8.92179e-07)
(1.800912986134276395e+01 8.64332e-07)
(1.900963707586180362e+01 7.19809e-07)
(2.001014429038084685e+01 6.95988e-07)
(2.101065150489989009e+01 6.67036e-07)
(2.201115871941892976e+01 5.78682e-07)
(2.301166593393797299e+01 5.78878e-07)
(2.401217314845701623e+01 5.64119e-07)
(2.501268036297605946e+01 5.12686e-07)
(2.601318757749510269e+01 5.15781e-07)
(2.701369479201414237e+01 4.2132e-07)
(2.801420200653318560e+01 4.52952e-07)
(2.901470922105222883e+01 4.30989e-07)
(3.001521643557126851e+01 3.82791e-07)
(3.101572365009031174e+01 3.92282e-07)
(3.201623086460935497e+01 3.42745e-07)
(3.301673807912839465e+01 3.41041e-07)
(3.401724529364744143e+01 3.36723e-07)
(3.501775250816648111e+01 3.00292e-07)
(3.601825972268552789e+01 3.15848e-07)
(3.701876693720456757e+01 3.01268e-07)
(3.801927415172360725e+01 2.76583e-07)
(3.901978136624265403e+01 2.55392e-07)
(4.002028858076169371e+01 2.58644e-07)
(4.102079579528073339e+01 2.42862e-07)
(4.202130300979978017e+01 2.32395e-07)
(4.302181022431881985e+01 2.37921e-07)
(4.402231743883785953e+01 2.28413e-07)
(4.502282465335690631e+01 2.26918e-07)
(4.602333186787594599e+01 1.947e-07)
(4.702383908239499277e+01 1.9377e-07)
(4.802434629691403245e+01 2.02039e-07)
(4.902485351143307213e+01 1.8762e-07)
(5.002536072595211891e+01 1.86764e-07)
(5.102586794047115859e+01 1.65227e-07)
(5.202637515499020537e+01 1.74933e-07)
(5.302688236950924505e+01 1.69393e-07)
(5.402738958402828473e+01 1.54966e-07)
(5.502789679854733151e+01 1.59383e-07)
(5.602840401306637119e+01 1.52662e-07)
(5.702891122758541087e+01 1.50951e-07)
(5.802941844210445765e+01 1.38634e-07)
(5.902992565662349733e+01 1.38767e-07)
(6.003043287114253701e+01 1.43641e-07)
(6.103094008566158379e+01 1.28126e-07)
(6.203144730018062347e+01 1.35338e-07)
(6.303195451469967026e+01 1.17914e-07)
(6.403246172921870993e+01 1.28876e-07)
(6.503296894373775672e+01 1.12766e-07)
(6.603347615825678929e+01 1.24898e-07)
(6.703398337277583607e+01 1.13163e-07)
(6.803449058729488286e+01 1.09892e-07)
(6.903499780181391543e+01 1.10808e-07)
(7.003550501633296221e+01 1.02561e-07)
(7.103601223085200900e+01 1.00067e-07)
(7.203651944537105578e+01 1.08716e-07)
(7.303702665989008835e+01 9.74282e-08)
(7.403753387440913514e+01 9.941e-08)
(7.503804108892818192e+01 9.77335e-08)
(7.603854830344721449e+01 9.02466e-08)
(7.703905551796626128e+01 9.21492e-08)
(7.803956273248530806e+01 8.48128e-08)
(7.904006994700434063e+01 9.22512e-08)
(8.004057716152338742e+01 8.49949e-08)
(8.104108437604243420e+01 8.24962e-08)
(8.204159159056146677e+01 8.34176e-08)
(8.304209880508051356e+01 8.3636e-08)
(8.404260601959956034e+01 7.933e-08)
(8.504311323411859291e+01 7.81261e-08)
(8.604362044863763970e+01 7.42967e-08)
(8.704412766315668648e+01 7.74872e-08)
(8.804463487767571905e+01 7.4139e-08)
(8.904514209219476584e+01 7.09289e-08)
(9.004564930671381262e+01 7.33086e-08)
(9.104615652123285940e+01 7.06451e-08)
(9.204666373575189198e+01 6.66498e-08)
(9.304717095027093876e+01 7.21727e-08)
(9.404767816478998554e+01 6.25665e-08)
(9.504818537930901812e+01 6.75533e-08)
(9.604869259382806490e+01 6.2124e-08)
(9.704919980834711168e+01 6.55413e-08)
(9.804970702286614426e+01 6.48528e-08)
(9.905021423738519104e+01 5.8946e-08)
(1.000507214519042378e+02 6.3255e-08)
(1.010512286664232704e+02 5.93264e-08)
(1.020517358809423172e+02 5.73667e-08)
(1.030522430954613640e+02 5.8619e-08)
(1.040527503099804107e+02 5.39231e-08)
(1.050532575244994433e+02 5.65619e-08)
(1.060537647390184901e+02 5.51596e-08)
(1.070542719535375369e+02 5.37744e-08)
(1.080547791680565695e+02 4.87427e-08)
(1.090552863825756162e+02 5.57769e-08)
(1.100557935970946630e+02 5.30774e-08)
(1.110563008116136956e+02 5.10729e-08)
(1.120568080261327424e+02 4.8462e-08)
(1.130573152406517892e+02 5.19905e-08)
(1.140578224551708217e+02 4.77658e-08)
(1.150583296696898685e+02 4.76917e-08)
(1.160588368842089153e+02 4.99786e-08)
(1.170593440987279479e+02 4.567e-08)
(1.180598513132469947e+02 4.65882e-08)
(1.190603585277660414e+02 4.43618e-08)
(1.200608657422850740e+02 4.57903e-08)
(1.210613729568041208e+02 4.30082e-08)
(1.220618801713231676e+02 4.52746e-08)
(1.230623873858422144e+02 4.45694e-08)
(1.240628946003612469e+02 4.13281e-08)
(1.250634018148802937e+02 4.21287e-08)
(1.260639090293993405e+02 4.11972e-08)
(1.270644162439183731e+02 3.56983e-08)
(1.280649234584374199e+02 2.16642e-08)
(1.290654306729564667e+02 4.09956e-09)
(1.300659378874755134e+02 2.19187e-09)
(1.310664451019945602e+02 1.54071e-09)
(1.320669523165135786e+02 1.21203e-09)
(1.330674595310326254e+02 9.73572e-10)
(1.340679667455516721e+02 8.31743e-10)
(1.350684739600707189e+02 7.01348e-10)
(1.360689811745897657e+02 6.29487e-10)
(1.370694883891088125e+02 5.52318e-10)
(1.380699956036278309e+02 4.90989e-10)
(1.390705028181468776e+02 4.31768e-10)
(1.400710100326659244e+02 3.92709e-10)
(1.410715172471849712e+02 3.54913e-10)
(1.420720244617040180e+02 3.19335e-10)
(1.430725316762230648e+02 2.90016e-10)
(1.440730388907421116e+02 2.63763e-10)
(1.450735461052611299e+02 2.40318e-10)
(1.460740533197801767e+02 2.19677e-10)
(1.470745605342992235e+02 2.01664e-10)
(1.480750677488182703e+02 1.83778e-10)
(1.490755749633373171e+02 1.67738e-10)
(1.500760821778563638e+02 1.52694e-10)
(1.510765893923753822e+02 1.39394e-10)
(1.520770966068944290e+02 1.26762e-10)
(1.530776038214134758e+02 1.14487e-10)
(1.540781110359325226e+02 1.05087e-10)
(1.550786182504515693e+02 9.52737e-11)
(1.560791254649706161e+02 8.78745e-11)
(1.570796326794896345e+02 7.92893e-11)
(1.580801398940086813e+02 7.07954e-11)
(1.590806471085277281e+02 6.53287e-11)
(1.600811543230467748e+02 5.79661e-11)
(1.610816615375658216e+02 5.42041e-11)
(1.620821687520848684e+02 4.72895e-11)
(1.630826759666039152e+02 4.26096e-11)
(1.640831831811229335e+02 3.7995e-11)
(1.650836903956419803e+02 3.3771e-11)
(1.660841976101610271e+02 3.03991e-11)
(1.670847048246800739e+02 2.63317e-11)
(1.680852120391991207e+02 2.35886e-11)
(1.690857192537181675e+02 2.01365e-11)
(1.700862264682371858e+02 1.73313e-11)
(1.710867336827562326e+02 1.49532e-11)
(1.720872408972752794e+02 1.17875e-11)
(1.730877481117943262e+02 1.05045e-11)
(1.740882553263133730e+02 7.68554e-12)
(1.750887625408324197e+02 6.32349e-12)
(1.760892697553514381e+02 4.69004e-12)
(1.770897769698704849e+02 3.22364e-12)
(1.780902841843895317e+02 2.2157e-12)
(1.790907913989085785e+02 1.20654e-12)
(1.800912986134276252e+02 6.54871e-13)
(1.810918058279466720e+02 3.15751e-13)
(1.820923130424657188e+02 1.7404e-13)
(1.830928202569847372e+02 1.37659e-13)
(1.840933274715037840e+02 1.109e-13)
(1.850938346860228307e+02 9.31103e-14)
(1.860943419005418775e+02 7.54462e-14)
(1.870948491150609243e+02 6.47365e-14)
(1.880953563295799711e+02 5.42933e-14)
(1.890958635440989895e+02 4.60084e-14)
(1.900963707586180362e+02 3.90082e-14)
(1.910968779731370830e+02 3.28118e-14)
(1.920973851876561298e+02 2.77656e-14)
(1.930978924021751766e+02 2.37835e-14)
(1.940983996166942234e+02 1.96764e-14)
(1.950989068312132702e+02 1.67578e-14)
(1.960994140457322885e+02 1.40726e-14)
(1.970999212602513353e+02 1.1818e-14)
(1.981004284747703821e+02 9.81848e-15)
(1.991009356892894289e+02 8.29382e-15)
(2.001014429038084756e+02 6.9162e-15)
(2.011019501183275224e+02 5.60697e-15)
(2.021024573328465408e+02 4.74919e-15)
(2.031029645473655876e+02 3.83624e-15)
(2.041034717618846344e+02 2.97854e-15)
(2.051039789764036811e+02 2.28374e-15)
(2.061044861909227279e+02 2.09169e-15)
(2.071049934054417747e+02 1.53765e-15)
(2.081055006199608215e+02 1.00766e-15)
(2.091060078344798399e+02 8.899e-16)
(2.101065150489988866e+02 7.21252e-16)
(2.111070222635179334e+02 4.79436e-16)
(2.121075294780369802e+02 2.78198e-16)
(2.131080366925560270e+02 2.39053e-16)
(2.141085439070750738e+02 1.71696e-16)
(2.151090511215940921e+02 1.00881e-16)
(2.161095583361131389e+02 3.18936e-17)
(2.171100655506321857e+02 3.70625e-17)
(2.181105727651512325e+02 1.49702e-17)
(2.191110799796702793e+02 4.68209e-18)
(2.201115871941893261e+02 7.07708e-19)
(2.211120944087083444e+02 3.41607e-19)
(2.221126016232273912e+02 1.15753e-20)
(2.231131088377464380e+02 0)
(2.241136160522654848e+02 0)
(2.251141232667845316e+02 0)
(2.261146304813035783e+02 0)
(2.271151376958226251e+02 0)
(2.281156449103416435e+02 0)
(2.291161521248606903e+02 0)
(2.301166593393797370e+02 0)
(2.311171665538987838e+02 0)
(2.321176737684178306e+02 0)
(2.331181809829368774e+02 0)
(2.341186881974558958e+02 0)
(2.351191954119749425e+02 0)
(2.361197026264939893e+02 0)
(2.371202098410130361e+02 0)
(2.381207170555320829e+02 0)
(2.391212242700511297e+02 0)
(2.401217314845701480e+02 0)
(2.411222386990891948e+02 0)
(2.421227459136082416e+02 0)
(2.431232531281272884e+02 0)
(2.441237603426463352e+02 0)
(2.451242675571653820e+02 0)
(2.461247747716844287e+02 0)
(2.471252819862034471e+02 0)
(2.481257892007224939e+02 0)
(2.491262964152415407e+02 0)
(2.501268036297605875e+02 0)
(2.511273108442796342e+02 0)
(2.521278180587986810e+02 0)
(2.531283252733176994e+02 0)
(2.541288324878367462e+02 0)
(2.551293397023557930e+02 0)
);
