/*--------------------------------*- C++ -*----------------------------------*\
  =========                 |
  \\      /  F ield         | OpenFOAM: The Open Source CFD Toolbox
   \\    /   O peration     | Website:  https://openfoam.org
    \\  /    A nd           | Version:  6
     \\/     M anipulation  |
\*---------------------------------------------------------------------------*/
FoamFile
{
    version     2.0;
    format      ascii;
    class       dictionary;
    location    "constant";
    object      particleProperties;
}
// * * * * * * * * * * * * * * * * * * * * * * * * * * * * * * * * * * * * * //

solution
{
    active          true;
    coupled         true;
    transient       yes;
    cellValueSourceCorrection off;
    
    interpolationSchemes
    {

        rho.air         cell;
        mu.air          cell;

        U.air          cell;
        UsTilde         cell;
        grad(p)     cell;
        UpTilde         cell;
        laplacian(U.air)  cell;
        grad(U.air)     cell;
        k.air           cell;
        epsilon.air         cell;

    }

    averagingMethod basic;

    integrationSchemes
    {
        U               Euler; //analytical; ///Euler;
    }

    sourceTerms
    {
        schemes
        {
            U     semiImplicit 1;
        }
    }
}

constantProperties
{
    rho0            1000;
    alphaMax        0.9;
}

subModels
{
    particleForces
    {
	sphereDrag;
    }

    injectionModels
    {
        model1
        {
            type            manualInjection;
            massTotal       0;
            parcelBasisType fixed;
            nParticle       1;
            SOI             0.;
            positionsFile   "injectionTable.dat";
            U0              (0 0 0);
            sizeDistribution
            {
                type        fixedValue;
                fixedValueDistribution
                {
                    value   1.0e-6;
                }
            }
        }
    }

    dispersionModel "neuralSDE";
    neuralSDECoeffs
    {

        GMultiplier         5.0; 
        BMultiplier         1000.0;
        timescalePowerBNorm 1.0;
        BNormIndex          1.0;
        GNormIndex          1.0;

        uMultiplier             0.0001;
        timescaleInpMultiplier  26.0;
        meshSizeMultiplier      150.0;

        //debugEuler          true;
        NumberOfFeatures    2;

        stationary      false;//true;

        //csanadyFactorsOn   true;
        //relVelIsUpMinusUs true;

        init "generatorTKE";
        Cinit           1.0;
    }

    patchInteractionModel none; //reboundHW;

    reboundHWCoeffs
    {
        UFactor             1.0;
    }

    heatTransferModel none;

    surfaceFilmModel none;

    packingModel none;

    dampingModel none; // relaxation;

    isotropyModel none; //stochastic;

    stochasticCollisionModel none;

    radiation off;
}


cloudFunctions
{}


// ************************************************************************* //
