/*--------------------------------*- C++ -*----------------------------------*\
| =========                 |                                                 |
| \\      /  F ield         | OpenFOAM: The Open Source CFD Toolbox           |
|  \\    /   O peration     | Version:  v2012                                 |
|   \\  /    A nd           | Website:  www.openfoam.com                      |
|    \\/     M anipulation  |                                                 |
\*---------------------------------------------------------------------------*/
FoamFile
{
    version     2.0;
    format      ascii;
    class       dictionary;
    location    "system";
    object      fvSchemes;
}
// * * * * * * * * * * * * * * * * * * * * * * * * * * * * * * * * * * * * * //

ddtSchemes
{
    default         backward;
}

gradSchemes
{
    default         Gauss cubic orthogonal;
}

divSchemes
{
    default         none;
    div(phi.air,U.air)      Gauss linear;
    div(U.air)          Gauss linear;
    div(((alpha.air*nuEff.air)*dev2(T(grad(U.air))))) Gauss linear;
}

laplacianSchemes
{
    default         Gauss linear corrected;
    lap(U.air)      Gauss cubic orthogonal;
}

interpolationSchemes
{
    default         cubic;
}

snGradSchemes
{
    default         orthogonal;
}

wallDist
{
    method meshWave;
}


// ************************************************************************* //
